Circuit: * Z:\home\araujo\MEGA\MEGAsync\Git\PricomAulas\Circuitos\FM\fm_demodulators_ltspice\slope_detector-ltspice.asc

.OP point found by inspection.

Date: Wed May 17 11:36:33 2023
Total elapsed time: 0.083 seconds.

tnom = 27
temp = 27
method = modified trap
totiter = 16553
traniter = 16553
tranpoints = 7002
accept = 4831
rejected = 2171
matrix size = 5
fillins = 0
solver = Normal
Avg thread counts: 1.0/1.1/1.1/1.0
Matrix Compiler1:       9 opcodes  0.2/[0.1]/0.1
Matrix Compiler2: 321 bytes object code size  0.1/0.1/[0.1]

